0
 OpenBabel04092311533D

124131  0  0  0  0  0  0  0  0999 V2000
  -27.4318  -13.7294  -21.9213 N   0  0  0  0  0  0  0  0  0  0  0  0
  -28.7339  -14.0705  -21.3359 C   0  0  0  0  0  0  0  0  0  0  0  0
  -29.8659  -14.3612  -22.3642 C   0  0  0  0  0  0  0  0  0  0  0  0
  -29.6171  -13.9031  -23.7377 N   0  0  0  0  0  0  0  0  0  0  0  0
  -28.2328  -14.0764  -24.1992 C   0  0  0  0  0  0  0  0  0  0  0  0
  -27.2241  -14.5384  -23.1222 C   0  0  0  0  0  0  0  0  0  0  0  0
  -30.6609  -13.6429  -24.6137 C   0  0  0  0  0  0  0  0  0  0  0  0
  -30.9630  -14.5237  -25.6600 C   0  0  0  0  0  0  0  0  0  0  0  0
  -32.0491  -14.2484  -26.5110 C   0  0  0  0  0  0  0  0  0  0  0  0
  -32.7991  -13.1315  -26.2941 N   0  0  0  0  0  0  0  0  0  0  0  0
  -32.5112  -12.2652  -25.3158 N   0  0  0  0  0  0  0  0  0  0  0  0
  -31.4599  -12.4949  -24.4960 C   0  0  0  0  0  0  0  0  0  0  0  0
  -31.2000  -11.5051  -23.5488 N   0  0  0  0  0  0  0  0  0  0  0  0
  -32.4389  -15.1306  -27.6801 C   0  0  0  0  0  0  0  0  0  0  0  0
  -33.3827  -14.7584  -28.6757 C   0  0  0  0  0  0  0  0  0  0  0  0
  -33.6924  -15.6132  -29.7335 C   0  0  0  0  0  0  0  0  0  0  0  0
  -33.0805  -16.8544  -29.8363 C   0  0  0  0  0  0  0  0  0  0  0  0
  -32.1671  -17.2551  -28.8727 C   0  0  0  0  0  0  0  0  0  0  0  0
  -31.8487  -16.4018  -27.8196 C   0  0  0  0  0  0  0  0  0  0  0  0
  -34.0409  -13.5559  -28.6767 O   0  0  0  0  0  0  0  0  0  0  0  0
  -32.1074   -8.0640  -19.9872 N   0  0  0  0  0  0  0  0  0  0  0  0
  -29.7171   -7.6833  -19.8406 C   0  0  0  0  0  0  0  0  0  0  0  0
  -29.4385  -10.3204  -18.2628 C   0  0  0  0  0  0  0  0  0  0  0  0
  -31.9236  -10.5028  -18.1903 C   0  0  0  0  0  0  0  0  0  0  0  0
  -30.7140  -10.6870  -20.3794 C   0  0  0  0  0  0  0  0  0  0  0  0
  -27.5798   -6.3558  -19.5844 C   0  0  1  0  0  0  0  0  0  0  0  0
  -28.7848   -6.9714  -17.6022 C   0  0  0  0  0  0  0  0  0  0  0  0
  -26.7171   -7.2016  -20.5403 C   0  0  0  0  0  0  0  0  0  0  0  0
  -22.5067   -7.6825  -22.2245 C   0  0  0  0  0  0  0  0  0  0  0  0
  -21.2018   -7.4434  -21.7624 C   0  0  0  0  0  0  0  0  0  0  0  0
  -20.9401   -6.4451  -20.8231 C   0  0  0  0  0  0  0  0  0  0  0  0
  -23.2890   -5.8969  -20.7763 C   0  0  0  0  0  0  0  0  0  0  0  0
  -18.3740   -5.9930  -21.1550 C   0  0  0  0  0  0  0  0  0  0  0  0
  -17.5513   -5.5392  -19.1923 C   0  0  0  0  0  0  0  0  0  0  0  0
  -30.9247   -8.3950  -19.1789 C   0  0  2  0  0  0  0  0  0  0  0  0
  -30.7386   -9.9515  -19.0169 C   0  0  0  0  0  0  0  0  0  0  0  0
  -28.7734   -7.0707  -19.0710 N   0  0  0  0  0  0  0  0  0  0  0  0
  -29.6659   -7.6875  -21.0745 O   0  0  0  0  0  0  0  0  0  0  0  0
  -26.7665   -5.9299  -18.3579 C   0  0  0  0  0  0  0  0  0  0  0  0
  -27.8145   -5.8411  -17.2638 C   0  0  1  0  0  0  0  0  0  0  0  0
  -28.4529   -4.5826  -17.2427 O   0  0  0  0  0  0  0  0  0  0  0  0
  -26.6480   -8.4231  -20.3962 O   0  0  0  0  0  0  0  0  0  0  0  0
  -26.0291   -6.5076  -21.4533 N   0  0  0  0  0  0  0  0  0  0  0  0
  -24.9698   -7.0759  -22.2855 C   0  0  0  0  0  0  0  0  0  0  0  0
  -23.5535   -6.8784  -21.7428 C   0  0  0  0  0  0  0  0  0  0  0  0
  -21.9957   -5.6902  -20.3142 C   0  0  0  0  0  0  0  0  0  0  0  0
  -19.5470   -6.1460  -20.4053 C   0  0  0  0  0  0  0  0  0  0  0  0
  -17.2971   -5.6662  -20.4659 N   0  0  0  0  0  0  0  0  0  0  0  0
  -19.1758   -5.8789  -18.7244 S   0  0  0  0  0  0  0  0  0  0  0  0
  -18.1777   -6.1221  -22.6502 C   0  0  0  0  0  0  0  0  0  0  0  0
  -33.1531   -7.3065  -19.6213 C   0  0  0  0  0  0  0  0  0  0  0  0
  -34.2403   -7.0983  -20.6923 C   0  0  0  0  0  0  0  0  0  0  0  0
  -33.2578   -6.7964  -18.5055 O   0  0  0  0  0  0  0  0  0  0  0  0
  -33.9403   -7.5379  -21.9153 F   0  0  0  0  0  0  0  0  0  0  0  0
  -35.6791   -7.2322  -20.2458 C   0  0  0  0  0  0  0  0  0  0  0  0
  -35.1183   -5.8682  -20.5918 C   0  0  0  0  0  0  0  0  0  0  0  0
  -22.8217   -8.6565  -23.1595 O   0  0  0  0  0  0  0  0  0  0  0  0
  -23.5299  -10.9764  -21.0410 C   0  0  0  0  0  0  0  0  0  0  0  0
  -23.0255  -12.8212  -22.5173 C   0  0  0  0  0  0  0  0  0  0  0  0
  -24.7475  -11.5722  -20.7125 C   0  0  0  0  0  0  0  0  0  0  0  0
  -24.2432  -13.4170  -22.1888 C   0  0  0  0  0  0  0  0  0  0  0  0
  -22.6689  -11.6009  -21.9435 C   0  0  0  0  0  0  0  0  0  0  0  0
  -25.1042  -12.7925  -21.2863 C   0  0  0  0  0  0  0  0  0  0  0  0
  -21.3510  -10.9569  -22.2996 C   0  0  0  0  0  0  0  0  0  0  0  0
  -26.4056  -13.4297  -20.9332 C   0  0  0  0  0  0  0  0  0  0  0  0
  -21.4665  -10.0265  -23.5022 C   0  0  0  0  0  0  0  0  0  0  0  0
  -29.0461  -13.2513  -20.7224 H   0  0  0  0  0  0  0  0  0  0  0  0
  -28.5862  -14.9796  -20.7913 H   0  0  0  0  0  0  0  0  0  0  0  0
  -30.7570  -13.8826  -22.0151 H   0  0  0  0  0  0  0  0  0  0  0  0
  -29.9378  -15.4272  -22.4226 H   0  0  0  0  0  0  0  0  0  0  0  0
  -27.8946  -13.1380  -24.5864 H   0  0  0  0  0  0  0  0  0  0  0  0
  -28.2624  -14.8589  -24.9284 H   0  0  0  0  0  0  0  0  0  0  0  0
  -27.3854  -15.5715  -22.8949 H   0  0  0  0  0  0  0  0  0  0  0  0
  -26.2226  -14.4180  -23.4792 H   0  0  0  0  0  0  0  0  0  0  0  0
  -30.3916  -15.3706  -25.8060 H   0  0  0  0  0  0  0  0  0  0  0  0
  -30.4490  -11.6097  -22.9209 H   0  0  0  0  0  0  0  0  0  0  0  0
  -31.7675  -10.7017  -23.5080 H   0  0  0  0  0  0  0  0  0  0  0  0
  -34.3811  -15.3207  -30.4443 H   0  0  0  0  0  0  0  0  0  0  0  0
  -33.3045  -17.4777  -30.6277 H   0  0  0  0  0  0  0  0  0  0  0  0
  -31.7238  -18.1849  -28.9362 H   0  0  0  0  0  0  0  0  0  0  0  0
  -31.1576  -16.7109  -27.1183 H   0  0  0  0  0  0  0  0  0  0  0  0
  -33.8804  -12.9334  -27.9950 H   0  0  0  0  0  0  0  0  0  0  0  0
  -32.1353   -8.4393  -20.8969 H   0  0  0  0  0  0  0  0  0  0  0  0
  -29.3630  -11.3846  -18.1815 H   0  0  0  0  0  0  0  0  0  0  0  0
  -29.4591   -9.8885  -17.2840 H   0  0  0  0  0  0  0  0  0  0  0  0
  -28.5945   -9.9431  -18.8014 H   0  0  0  0  0  0  0  0  0  0  0  0
  -31.8133  -11.5603  -18.0703 H   0  0  0  0  0  0  0  0  0  0  0  0
  -32.8412  -10.2955  -18.7002 H   0  0  0  0  0  0  0  0  0  0  0  0
  -31.9362  -10.0341  -17.2285 H   0  0  0  0  0  0  0  0  0  0  0  0
  -30.5861  -11.7367  -20.2158 H   0  0  0  0  0  0  0  0  0  0  0  0
  -29.9023  -10.3166  -20.9701 H   0  0  0  0  0  0  0  0  0  0  0  0
  -31.6365  -10.5160  -20.8937 H   0  0  0  0  0  0  0  0  0  0  0  0
  -27.8978   -5.5184  -20.1696 H   0  0  0  0  0  0  0  0  0  0  0  0
  -28.4571   -7.8902  -17.1624 H   0  0  0  0  0  0  0  0  0  0  0  0
  -29.7671   -6.7787  -17.2243 H   0  0  0  0  0  0  0  0  0  0  0  0
  -20.4231   -8.0161  -22.1239 H   0  0  0  0  0  0  0  0  0  0  0  0
  -24.0624   -5.3232  -20.4052 H   0  0  0  0  0  0  0  0  0  0  0  0
  -16.8295   -5.2549  -18.5117 H   0  0  0  0  0  0  0  0  0  0  0  0
  -31.0314   -8.0458  -18.1731 H   0  0  0  0  0  0  0  0  0  0  0  0
  -26.2975   -4.9817  -18.5184 H   0  0  0  0  0  0  0  0  0  0  0  0
  -25.9714   -6.6069  -18.1247 H   0  0  0  0  0  0  0  0  0  0  0  0
  -27.3953   -5.9396  -16.2843 H   0  0  0  0  0  0  0  0  0  0  0  0
  -28.8640   -4.4141  -18.1050 H   0  0  0  0  0  0  0  0  0  0  0  0
  -26.2495   -5.5555  -21.5724 H   0  0  0  0  0  0  0  0  0  0  0  0
  -25.0232   -6.6182  -23.2512 H   0  0  0  0  0  0  0  0  0  0  0  0
  -25.1390   -8.1322  -22.3095 H   0  0  0  0  0  0  0  0  0  0  0  0
  -21.8156   -4.9755  -19.5918 H   0  0  0  0  0  0  0  0  0  0  0  0
  -19.1064   -6.3883  -23.1102 H   0  0  0  0  0  0  0  0  0  0  0  0
  -17.4502   -6.8808  -22.8502 H   0  0  0  0  0  0  0  0  0  0  0  0
  -17.8377   -5.1885  -23.0472 H   0  0  0  0  0  0  0  0  0  0  0  0
  -35.9029   -7.4761  -19.2283 H   0  0  0  0  0  0  0  0  0  0  0  0
  -36.5209   -7.8081  -20.5692 H   0  0  0  0  0  0  0  0  0  0  0  0
  -35.4406   -5.3666  -21.4803 H   0  0  0  0  0  0  0  0  0  0  0  0
  -35.0489   -4.9276  -20.0864 H   0  0  0  0  0  0  0  0  0  0  0  0
  -23.2660  -10.0736  -20.6164 H   0  0  0  0  0  0  0  0  0  0  0  0
  -22.3884  -13.2833  -23.1849 H   0  0  0  0  0  0  0  0  0  0  0  0
  -25.3845  -11.1101  -20.0449 H   0  0  0  0  0  0  0  0  0  0  0  0
  -24.5071  -14.3198  -22.6134 H   0  0  0  0  0  0  0  0  0  0  0  0
  -20.6426  -11.7260  -22.5266 H   0  0  0  0  0  0  0  0  0  0  0  0
  -21.0368  -10.3704  -21.4616 H   0  0  0  0  0  0  0  0  0  0  0  0
  -26.8661  -12.7832  -20.2157 H   0  0  0  0  0  0  0  0  0  0  0  0
  -26.0934  -14.4109  -20.6421 H   0  0  0  0  0  0  0  0  0  0  0  0
  -21.7470  -10.5947  -24.3644 H   0  0  0  0  0  0  0  0  0  0  0  0
  -20.5224   -9.5524  -23.6719 H   0  0  0  0  0  0  0  0  0  0  0  0
  1  2  1  0  0  0  0
  1  6  1  0  0  0  0
  1 65  1  0  0  0  0
  2  3  1  0  0  0  0
  2 67  1  0  0  0  0
  2 68  1  0  0  0  0
  3  4  1  0  0  0  0
  3 69  1  0  0  0  0
  3 70  1  0  0  0  0
  4  5  1  0  0  0  0
  4  7  1  0  0  0  0
  5  6  1  0  0  0  0
  5 71  1  0  0  0  0
  5 72  1  0  0  0  0
  6 73  1  0  0  0  0
  6 74  1  0  0  0  0
  7  8  2  0  0  0  0
  7 12  1  0  0  0  0
  8  9  1  0  0  0  0
  8 75  1  0  0  0  0
  9 10  2  0  0  0  0
  9 14  1  0  0  0  0
 10 11  1  0  0  0  0
 11 12  2  0  0  0  0
 12 13  1  0  0  0  0
 13 76  1  0  0  0  0
 13 77  1  0  0  0  0
 14 15  2  0  0  0  0
 14 19  1  0  0  0  0
 15 16  1  0  0  0  0
 15 20  1  0  0  0  0
 16 17  2  0  0  0  0
 16 78  1  0  0  0  0
 17 18  1  0  0  0  0
 17 79  1  0  0  0  0
 18 19  2  0  0  0  0
 18 80  1  0  0  0  0
 19 81  1  0  0  0  0
 20 82  1  0  0  0  0
 21 51  1  0  0  0  0
 21 83  1  0  0  0  0
 22 35  1  0  0  0  0
 22 37  1  0  0  0  0
 22 38  2  0  0  0  0
 23 36  1  0  0  0  0
 23 84  1  0  0  0  0
 23 85  1  0  0  0  0
 23 86  1  0  0  0  0
 24 36  1  0  0  0  0
 24 87  1  0  0  0  0
 24 88  1  0  0  0  0
 24 89  1  0  0  0  0
 25 36  1  0  0  0  0
 25 90  1  0  0  0  0
 25 91  1  0  0  0  0
 25 92  1  0  0  0  0
 26 28  1  0  0  0  0
 26 37  1  0  0  0  0
 26 39  1  0  0  0  0
 26 93  1  6  0  0  0
 27 37  1  0  0  0  0
 27 40  1  0  0  0  0
 27 94  1  0  0  0  0
 27 95  1  0  0  0  0
 28 42  2  0  0  0  0
 28 43  1  0  0  0  0
 29 30  2  0  0  0  0
 29 45  1  0  0  0  0
 29 57  1  0  0  0  0
 30 31  1  0  0  0  0
 30 96  1  0  0  0  0
 31 46  2  0  0  0  0
 31 47  1  0  0  0  0
 32 45  2  0  0  0  0
 32 46  1  0  0  0  0
 32 97  1  0  0  0  0
 33 47  2  0  0  0  0
 33 48  1  0  0  0  0
 33 50  1  0  0  0  0
 34 48  2  0  0  0  0
 34 49  1  0  0  0  0
 34 98  1  0  0  0  0
 35 21  1  0  0  0  0
 35 36  1  0  0  0  0
 35 99  1  1  0  0  0
 39 40  1  0  0  0  0
 39100  1  0  0  0  0
 39101  1  0  0  0  0
 40 41  1  0  0  0  0
 40102  1  1  0  0  0
 41103  1  0  0  0  0
 43 44  1  0  0  0  0
 43104  1  0  0  0  0
 44 45  1  0  0  0  0
 44105  1  0  0  0  0
 44106  1  0  0  0  0
 46107  1  0  0  0  0
 47 49  1  0  0  0  0
 50108  1  0  0  0  0
 50109  1  0  0  0  0
 50110  1  0  0  0  0
 51 52  1  0  0  0  0
 51 53  2  0  0  0  0
 52 54  1  0  0  0  0
 52 55  1  0  0  0  0
 52 56  1  0  0  0  0
 55 56  1  0  0  0  0
 55111  1  0  0  0  0
 55112  1  0  0  0  0
 56113  1  0  0  0  0
 56114  1  0  0  0  0
 57 66  1  0  0  0  0
 58 60  2  0  0  0  0
 58 62  1  0  0  0  0
 58115  1  0  0  0  0
 59 61  1  0  0  0  0
 59 62  2  0  0  0  0
 59116  1  0  0  0  0
 60 63  1  0  0  0  0
 60117  1  0  0  0  0
 61 63  2  0  0  0  0
 61118  1  0  0  0  0
 62 64  1  0  0  0  0
 63 65  1  0  0  0  0
 64 66  1  0  0  0  0
 64119  1  0  0  0  0
 64120  1  0  0  0  0
 65121  1  0  0  0  0
 65122  1  0  0  0  0
 66123  1  0  0  0  0
 66124  1  0  0  0  0
M  ISO  4   1 100  57 101  65 100  66 101
M  END
$$$$
