0
     RDKit          3D

104110  0  0  0  0  0  0  0  0999 V2000
   76.6784   32.8156   57.6353 N   0  0  0  0  0  0  0  0  0100  0  0
   75.3626   34.6575   58.6972 C   0  0  0  0  0  0  0  0  0101  0  0
   75.6796   33.6652   57.5979 C   0  0  0  0  0  0  0  0  0102  0  0
   75.6626   32.5622   55.7249 C   0  0  0  0  0  0  0  0  0103  0  0
   74.7768   34.4634   53.5848 C   0  0  0  0  0  0  0  0  0104  0  0
   75.2595   32.2263   54.2856 C   0  0  2  0  0  0  0  0  0105  0  0
   75.0972   35.6452   52.7300 C   0  0  0  0  0  0  0  0  0106  0  0
   74.7452   36.9505   53.1091 C   0  0  0  0  0  0  0  0  0107  0  0
   75.1035   38.0448   52.3261 C   0  0  0  0  0  0  0  0  0108  0  0
   75.8414   37.8505   51.1625 C   0  0  0  0  0  0  0  0  0109  0  0
   76.2214   36.5703   50.7768 C   0  0  0  0  0  0  0  0  0110  0  0
   75.8408   35.4762   51.5469 C   0  0  0  0  0  0  0  0  0111  0  0
   73.6886   34.6113   54.6001 C   0  0  0  0  0  0  0  0  0112  0  0
   73.8559   34.2006   55.9422 C   0  0  0  0  0  0  0  0  0113  0  0
   71.5865   35.1374   55.5069 C   0  0  0  0  0  0  0  0  0114  0  0
   70.1552   35.5984   55.6704 C   0  0  0  0  0  0  0  0  0115  0  0
   76.0135   31.0239   53.6613 C   0  0  0  0  0  0  0  0  0116  0  0
   72.3736   35.0899   54.3483 C   0  0  0  0  0  0  0  0  0117  0  0
   71.8316   35.4649   52.9802 C   0  0  0  0  0  0  0  0  0118  0  0
   75.4132   30.6110   52.3053 C   0  0  0  0  0  0  0  0  0119  0  0
   76.6689   32.1102   56.4350 N   0  0  0  0  0  0  0  0  0120  0  0
   75.4830   33.3985   53.4419 N   0  0  0  0  0  0  0  0  0121  0  0
   74.9760   33.5376   56.4187 N   0  0  0  0  0  0  0  0  0122  0  0
   74.3752   29.9515   52.2705 O   0  0  0  0  0  0  0  0  0123  0  0
   72.4514   34.5401   56.8839 S   0  0  0  0  0  0  0  0  0124  0  0
   76.2720   39.1979   50.1761 Cl  0  0  0  0  0  0  0  0  0125  0  0
   69.0025   42.3626   49.2467 C   0  0  0  0  0  0  0  0  0100  0  0
   69.4658   41.9423   50.4964 C   0  0  0  0  0  0  0  0  0101  0  0
   69.6748   42.8755   51.5155 C   0  0  0  0  0  0  0  0  0102  0  0
   69.4295   44.2302   51.3107 C   0  0  0  0  0  0  0  0  0103  0  0
   68.9627   44.6309   50.0646 C   0  0  0  0  0  0  0  0  0104  0  0
   68.5317   45.9663   49.6018 C   0  0  0  0  0  0  0  0  0105  0  0
   67.5234   46.8379   47.4536 C   0  0  2  0  0  0  0  0  0106  0  0
   68.2857   48.1989   47.4668 C   0  0  0  0  0  0  0  0  0107  0  0
   66.2234   49.4646   46.9985 C   0  0  0  0  0  0  0  0  0108  0  0
   65.4279   48.1540   46.8388 C   0  0  0  0  0  0  0  0  0109  0  0
   66.0291   47.0634   47.7403 C   0  0  0  0  0  0  0  0  0110  0  0
   68.7684   43.7338   49.0468 C   0  0  0  0  0  0  0  0  0111  0  0
   68.2614   44.5005   47.8781 C   0  0  0  0  0  0  0  0  0112  0  0
   68.1586   45.7925   48.3010 N   0  0  0  0  0  0  0  0  0113  0  0
   67.5284   49.3027   47.2991 N   0  0  0  0  0  0  0  0  0114  0  0
   65.7368   50.5790   46.8427 O   0  0  0  0  0  0  0  0  0115  0  0
   69.4941   48.3032   47.6193 O   0  0  0  0  0  0  0  0  0116  0  0
   68.5053   47.0052   50.2630 O   0  0  0  0  0  0  0  0  0117  0  0
   67.9773   44.0594   46.7655 O   0  0  0  0  0  0  0  0  0118  0  0
   69.9040   39.8418   47.8355 C   0  0  0  0  0  0  0  0  0  0  0  0
   70.3146   40.7328   48.9883 C   0  0  0  0  0  0  0  0  0  0  0  0
   74.3005   35.4020   47.2979 C   0  0  0  0  0  0  0  0  0  0  0  0
   73.1554   35.9283   46.4297 C   0  0  0  0  0  0  0  0  0  0  0  0
   73.8848   34.2534   48.2221 C   0  0  0  0  0  0  0  0  0  0  0  0
   71.9926   36.4289   47.2906 C   0  0  0  0  0  0  0  0  0  0  0  0
   75.0490   33.6751   49.0332 C   0  0  0  0  0  0  0  0  0  0  0  0
   70.8589   36.9845   46.4235 C   0  0  0  0  0  0  0  0  0  0  0  0
   74.6201   32.5013   49.9096 C   0  0  0  0  0  0  0  0  0  0  0  0
   69.6584   37.4377   47.2479 C   0  0  0  0  0  0  0  0  0  0  0  0
   73.6233   32.8702   50.8768 N   0  0  0  0  0  0  0  0  0  0  0  0
   69.9898   38.4935   48.1641 N   0  0  0  0  0  0  0  0  0  0  0  0
   69.5434   40.2854   46.7487 O   0  0  0  0  0  0  0  0  0  0  0  0
   70.2360   42.0934   48.6197 O   0  0  0  0  0  0  0  0  0  0  0  0
   76.0650   34.5413   59.4960 H   0  0  0  0  0  0  0  0  0  0  0  0
   74.3731   34.4798   59.0636 H   0  0  0  0  0  0  0  0  0  0  0  0
   75.4257   35.6525   58.3087 H   0  0  0  0  0  0  0  0  0  0  0  0
   74.2281   31.9453   54.3318 H   0  0  0  0  0  0  0  0  0  0  0  0
   74.2133   37.1010   53.9806 H   0  0  0  0  0  0  0  0  0  0  0  0
   74.8226   38.9970   52.6079 H   0  0  0  0  0  0  0  0  0  0  0  0
   76.7836   36.4321   49.9225 H   0  0  0  0  0  0  0  0  0  0  0  0
   76.1078   34.5258   51.2461 H   0  0  0  0  0  0  0  0  0  0  0  0
   69.7782   35.9330   54.7265 H   0  0  0  0  0  0  0  0  0  0  0  0
   70.1179   36.4029   56.3748 H   0  0  0  0  0  0  0  0  0  0  0  0
   69.5570   34.7854   56.0255 H   0  0  0  0  0  0  0  0  0  0  0  0
   75.9554   30.1928   54.3327 H   0  0  0  0  0  0  0  0  0  0  0  0
   77.0293   31.3180   53.4984 H   0  0  0  0  0  0  0  0  0  0  0  0
   72.6040   35.3543   52.2480 H   0  0  0  0  0  0  0  0  0  0  0  0
   71.4973   36.4812   52.9953 H   0  0  0  0  0  0  0  0  0  0  0  0
   71.0116   34.8234   52.7333 H   0  0  0  0  0  0  0  0  0  0  0  0
   69.6537   40.9420   50.6668 H   0  0  0  0  0  0  0  0  0  0  0  0
   70.0166   42.5549   52.4350 H   0  0  0  0  0  0  0  0  0  0  0  0
   69.5898   44.9179   52.0633 H   0  0  0  0  0  0  0  0  0  0  0  0
   67.5956   46.4294   46.4673 H   0  0  0  0  0  0  0  0  0  0  0  0
   65.4715   47.8347   45.8185 H   0  0  0  0  0  0  0  0  0  0  0  0
   64.4100   48.3232   47.1218 H   0  0  0  0  0  0  0  0  0  0  0  0
   65.9141   47.3580   48.7625 H   0  0  0  0  0  0  0  0  0  0  0  0
   65.5125   46.1479   47.5409 H   0  0  0  0  0  0  0  0  0  0  0  0
   68.0197   50.1475   47.4183 H   0  0  0  0  0  0  0  0  0  0  0  0
   71.3211   40.5025   49.2691 H   0  0  0  0  0  0  0  0  0  0  0  0
   69.6513   40.5600   49.8099 H   0  0  0  0  0  0  0  0  0  0  0  0
   74.6667   36.2067   47.9006 H   0  0  0  0  0  0  0  0  0  0  0  0
   75.0490   35.0196   46.6357 H   0  0  0  0  0  0  0  0  0  0  0  0
   72.8065   35.1395   45.7965 H   0  0  0  0  0  0  0  0  0  0  0  0
   73.5215   36.7468   45.8459 H   0  0  0  0  0  0  0  0  0  0  0  0
   73.4661   33.4711   47.6241 H   0  0  0  0  0  0  0  0  0  0  0  0
   73.1781   34.6495   48.9211 H   0  0  0  0  0  0  0  0  0  0  0  0
   72.3468   37.2026   47.9394 H   0  0  0  0  0  0  0  0  0  0  0  0
   71.6122   35.6050   47.8575 H   0  0  0  0  0  0  0  0  0  0  0  0
   75.4469   34.4452   49.6606 H   0  0  0  0  0  0  0  0  0  0  0  0
   75.7820   33.3156   48.3416 H   0  0  0  0  0  0  0  0  0  0  0  0
   70.5403   36.2207   45.7453 H   0  0  0  0  0  0  0  0  0  0  0  0
   71.2373   37.8402   45.9044 H   0  0  0  0  0  0  0  0  0  0  0  0
   75.4789   32.1283   50.4275 H   0  0  0  0  0  0  0  0  0  0  0  0
   74.1921   31.7581   49.2698 H   0  0  0  0  0  0  0  0  0  0  0  0
   69.2894   36.6023   47.8054 H   0  0  0  0  0  0  0  0  0  0  0  0
   68.9207   37.8137   46.5702 H   0  0  0  0  0  0  0  0  0  0  0  0
   72.8503   33.4632   51.0184 H   0  0  0  0  0  0  0  0  0  0  0  0
   70.2924   38.2505   49.0688 H   0  0  0  0  0  0  0  0  0  0  0  0
  1  3  2  0
  1 21  1  0
  2  3  1  0
  2 60  1  0
  2 61  1  0
  2 62  1  0
  3 23  1  0
  4  6  1  0
  4 21  2  0
  4 23  1  0
  5  7  1  0
  5 13  1  0
  5 22  2  0
  6 17  1  0
  6 22  1  0
  6 63  1  1
  7  8  2  0
  7 12  1  0
  8  9  1  0
  8 64  1  0
  9 10  2  0
  9 65  1  0
 10 11  1  0
 10 26  1  0
 11 12  2  0
 11 66  1  0
 12 67  1  0
 13 14  2  0
 13 18  1  0
 14 23  1  0
 14 25  1  0
 15 16  1  0
 15 18  2  0
 15 25  1  0
 16 68  1  0
 16 69  1  0
 16 70  1  0
 17 20  1  0
 17 71  1  0
 17 72  1  0
 18 19  1  0
 19 73  1  0
 19 74  1  0
 19 75  1  0
 20 24  2  0
 20 56  1  0
 27 28  2  0
 27 38  1  0
 27 59  1  0
 28 29  1  0
 28 76  1  0
 29 30  2  0
 29 77  1  0
 30 31  1  0
 30 78  1  0
 31 32  1  0
 31 38  2  0
 32 40  1  0
 32 44  2  0
 33 34  1  0
 33 37  1  0
 33 40  1  0
 33 79  1  6
 34 41  1  0
 34 43  2  0
 35 36  1  0
 35 41  1  0
 35 42  2  0
 36 37  1  0
 36 80  1  0
 36 81  1  0
 37 82  1  0
 37 83  1  0
 38 39  1  0
 39 40  1  0
 39 45  2  0
 41 84  1  0
 46 47  1  0
 46 57  1  0
 46 58  2  0
 47 59  1  0
 47 85  1  0
 47 86  1  0
 48 49  1  0
 48 50  1  0
 48 87  1  0
 48 88  1  0
 49 51  1  0
 49 89  1  0
 49 90  1  0
 50 52  1  0
 50 91  1  0
 50 92  1  0
 51 53  1  0
 51 93  1  0
 51 94  1  0
 52 54  1  0
 52 95  1  0
 52 96  1  0
 53 55  1  0
 53 97  1  0
 53 98  1  0
 54 56  1  0
 54 99  1  0
 54100  1  0
 55 57  1  0
 55101  1  0
 55102  1  0
 56103  1  0
 57104  1  0
M  ISO  4  20 100  27 101  56 100  59 101
M  END
$$$$
