0
     RDKit          3D

144151  0  0  0  0  0  0  0  0999 V2000
  -15.2810   12.1243  -15.4672 C   0  0  0  0  0  0  0  0  0100  0  0
  -15.3601   11.3889  -16.7876 C   0  0  0  0  0  0  0  0  0101  0  0
  -14.4420   10.3580  -16.9943 C   0  0  0  0  0  0  0  0  0102  0  0
  -14.4086    9.5828  -18.1556 C   0  0  0  0  0  0  0  0  0103  0  0
  -15.3728    9.8244  -19.1716 C   0  0  0  0  0  0  0  0  0104  0  0
  -16.3006   10.8571  -18.9540 C   0  0  0  0  0  0  0  0  0105  0  0
  -16.3040   11.6549  -17.8029 C   0  0  0  0  0  0  0  0  0106  0  0
  -17.3897   12.7337  -17.7180 C   0  0  0  0  0  0  0  0  0107  0  0
  -15.8516   15.3164  -17.9656 C   0  0  0  0  0  0  0  0  0108  0  0
  -15.4743    9.0173  -20.4378 C   0  0  0  0  0  0  0  0  0109  0  0
  -16.6285    8.8559  -21.1283 C   0  0  0  0  0  0  0  0  0110  0  0
  -15.7629    7.6122  -23.0276 C   0  0  0  0  0  0  0  0  0111  0  0
  -14.5160    7.6991  -22.2702 C   0  0  0  0  0  0  0  0  0112  0  0
  -14.3260    8.3571  -21.0465 C   0  0  0  0  0  0  0  0  0113  0  0
  -13.0088    8.1882  -20.6212 C   0  0  0  0  0  0  0  0  0114  0  0
  -12.3918    7.4327  -21.6095 C   0  0  0  0  0  0  0  0  0115  0  0
  -12.4675    8.7376  -19.3323 C   0  0  0  0  0  0  0  0  0116  0  0
  -13.5826    7.3012  -17.6288 C   0  0  0  0  0  0  0  0  0117  0  0
  -14.7394    6.9067  -16.9167 C   0  0  0  0  0  0  0  0  0118  0  0
  -14.8286    5.6116  -16.4014 C   0  0  0  0  0  0  0  0  0119  0  0
  -13.7790    4.7200  -16.5952 C   0  0  0  0  0  0  0  0  0120  0  0
  -12.6519    5.1642  -17.2799 C   0  0  0  0  0  0  0  0  0121  0  0
  -18.1626    7.9524  -22.8427 C   0  0  0  0  0  0  0  0  0122  0  0
  -13.8591    3.4498  -16.1416 F   0  0  0  0  0  0  0  0  0123  0  0
  -15.7835    7.7391  -16.7176 F   0  0  0  0  0  0  0  0  0124  0  0
  -15.2837   13.4654  -15.5234 N   0  0  0  0  0  0  0  0  0125  0  0
  -16.8122    8.1456  -22.2984 N   0  0  0  0  0  0  0  0  0126  0  0
  -13.2978    7.1648  -22.6025 N   0  0  0  0  0  0  0  0  0127  0  0
  -13.4119    8.5879  -18.2114 N   0  0  0  0  0  0  0  0  0128  0  0
  -12.5454    6.4216  -17.7764 N   0  0  0  0  0  0  0  0  0129  0  0
  -15.1420   11.5017  -14.4129 O   0  0  0  0  0  0  0  0  0130  0  0
  -16.4568   13.7586  -20.0988 O   0  0  0  0  0  0  0  0  0131  0  0
  -18.3464   14.9801  -18.9354 O   0  0  0  0  0  0  0  0  0132  0  0
  -15.8826    7.1052  -24.1473 O   0  0  0  0  0  0  0  0  0133  0  0
  -17.0938   14.2249  -18.8634 S   0  0  0  0  0  0  0  0  0134  0  0
   -2.5007    3.7226  -20.1218 C   0  0  0  0  0  0  0  0  0100  0  0
   -7.6093    4.5030  -16.7746 C   0  0  0  0  0  0  0  0  0101  0  0
   -5.9248    3.6512  -18.2808 C   0  0  0  0  0  0  0  0  0102  0  0
   -6.5133    2.3839  -18.2078 C   0  0  0  0  0  0  0  0  0103  0  0
   -7.6296    2.1715  -17.4008 C   0  0  0  0  0  0  0  0  0104  0  0
   -8.1710    3.2263  -16.6619 C   0  0  0  0  0  0  0  0  0105  0  0
   -6.4920    4.7123  -17.5731 C   0  0  0  0  0  0  0  0  0106  0  0
   -9.3230    2.9618  -15.6910 C   0  0  0  0  0  0  0  0  0107  0  0
   -4.6846    3.8846  -19.0792 C   0  0  0  0  0  0  0  0  0108  0  0
   -4.9605    6.3032  -20.0866 C   0  0  0  0  0  0  0  0  0109  0  0
   -9.8267    4.8077  -14.1012 C   0  0  0  0  0  0  0  0  0110  0  0
   -9.2826    5.5539  -12.8617 C   0  0  2  0  0  0  0  0  0111  0  0
   -9.8936    5.0325  -11.5585 C   0  0  0  0  0  0  0  0  0112  0  0
   -4.2480    4.9920  -19.8258 C   0  0  0  0  0  0  0  0  0113  0  0
   -9.8036    6.2431  -10.6436 C   0  0  2  0  0  0  0  0  0114  0  0
  -10.0428    7.4313  -11.5776 C   0  0  0  0  0  0  0  0  0115  0  0
   -9.1686    7.8645  -13.9045 C   0  0  0  0  0  0  0  0  0116  0  0
   -9.4682    9.3860  -13.8130 C   0  0  2  0  0  0  0  0  0117  0  0
  -10.7770    9.8162  -14.5825 C   0  0  0  0  0  0  0  0  0118  0  0
  -11.0284   11.3305  -14.3705 C   0  0  0  0  0  0  0  0  0119  0  0
  -10.6680    9.5692  -16.1128 C   0  0  0  0  0  0  0  0  0120  0  0
  -12.0126    9.0532  -14.0436 C   0  0  0  0  0  0  0  0  0121  0  0
   -7.3752   10.7632  -13.5786 C   0  0  0  0  0  0  0  0  0122  0  0
   -9.1748    3.6821  -14.4253 N   0  0  0  0  0  0  0  0  0123  0  0
   -9.5022    7.0225  -12.8836 N   0  0  0  0  0  0  0  0  0124  0  0
   -8.2882   10.1067  -14.3136 N   0  0  0  0  0  0  0  0  0125  0  0
   -3.0537    4.8769  -20.3798 N   0  0  0  0  0  0  0  0  0126  0  0
  -10.7908    5.2555  -14.7229 O   0  0  0  0  0  0  0  0  0127  0  0
   -8.6276    7.4699  -14.9405 O   0  0  0  0  0  0  0  0  0128  0  0
   -7.3883   10.8021  -12.3519 O   0  0  0  0  0  0  0  0  0129  0  0
   -8.5471    6.3155  -10.0006 O   0  0  0  0  0  0  0  0  0130  0  0
   -3.4401    2.6592  -19.1388 S   0  0  0  0  0  0  0  0  0131  0  0
  -14.6384    3.1515   -9.3514 C   0  0  0  0  0  0  0  0  0  0  0  0
  -14.8263    3.9738   -8.0775 C   0  0  0  0  0  0  0  0  0  0  0  0
  -14.4689    5.4496   -8.2760 C   0  0  0  0  0  0  0  0  0  0  0  0
  -15.3227    6.0839   -9.3759 C   0  0  0  0  0  0  0  0  0  0  0  0
  -14.9900    7.5673   -9.5527 C   0  0  0  0  0  0  0  0  0  0  0  0
  -15.8219    8.1916  -10.6750 C   0  0  0  0  0  0  0  0  0  0  0  0
  -15.5198    9.6754  -10.9043 C   0  0  0  0  0  0  0  0  0  0  0  0
  -16.3337   10.2938  -12.0436 C   0  0  0  0  0  0  0  0  0  0  0  0
  -15.9632   11.7663  -12.2509 C   0  0  0  0  0  0  0  0  0  0  0  0
  -16.7651   12.4205  -13.3712 C   0  0  0  0  0  0  0  0  0  0  0  0
  -13.7534   10.1586  -16.2519 H   0  0  0  0  0  0  0  0  0  0  0  0
  -17.0142   11.0364  -19.6776 H   0  0  0  0  0  0  0  0  0  0  0  0
  -17.4333   13.0881  -16.7093 H   0  0  0  0  0  0  0  0  0  0  0  0
  -18.3040   12.2773  -18.0352 H   0  0  0  0  0  0  0  0  0  0  0  0
  -14.9158   14.8032  -17.8889 H   0  0  0  0  0  0  0  0  0  0  0  0
  -16.2169   15.5405  -16.9852 H   0  0  0  0  0  0  0  0  0  0  0  0
  -15.7157   16.2262  -18.5122 H   0  0  0  0  0  0  0  0  0  0  0  0
  -17.4649    9.3156  -20.7357 H   0  0  0  0  0  0  0  0  0  0  0  0
  -11.4077    7.1223  -21.5981 H   0  0  0  0  0  0  0  0  0  0  0  0
  -12.2558    9.7780  -19.4654 H   0  0  0  0  0  0  0  0  0  0  0  0
  -11.5853    8.1832  -19.0889 H   0  0  0  0  0  0  0  0  0  0  0  0
  -15.6690    5.3178  -15.8795 H   0  0  0  0  0  0  0  0  0  0  0  0
  -11.8652    4.5102  -17.4153 H   0  0  0  0  0  0  0  0  0  0  0  0
  -18.8784    8.4079  -22.1908 H   0  0  0  0  0  0  0  0  0  0  0  0
  -18.3685    6.9054  -22.9227 H   0  0  0  0  0  0  0  0  0  0  0  0
  -18.2246    8.4031  -23.8112 H   0  0  0  0  0  0  0  0  0  0  0  0
  -14.9754   14.2711  -15.9977 H   0  0  0  0  0  0  0  0  0  0  0  0
  -13.1035    6.6651  -23.4282 H   0  0  0  0  0  0  0  0  0  0  0  0
   -1.5680    3.4643  -20.4802 H   0  0  0  0  0  0  0  0  0  0  0  0
   -8.0279    5.2943  -16.2611 H   0  0  0  0  0  0  0  0  0  0  0  0
   -6.1188    1.6024  -18.7543 H   0  0  0  0  0  0  0  0  0  0  0  0
   -8.0569    1.2336  -17.3490 H   0  0  0  0  0  0  0  0  0  0  0  0
   -6.0798    5.6558  -17.6433 H   0  0  0  0  0  0  0  0  0  0  0  0
   -9.3622    1.9126  -15.4847 H   0  0  0  0  0  0  0  0  0  0  0  0
  -10.2222    3.3088  -16.1558 H   0  0  0  0  0  0  0  0  0  0  0  0
   -5.9123    6.2953  -19.5977 H   0  0  0  0  0  0  0  0  0  0  0  0
   -5.1015    6.4292  -21.1398 H   0  0  0  0  0  0  0  0  0  0  0  0
   -4.3710    7.1112  -19.7065 H   0  0  0  0  0  0  0  0  0  0  0  0
   -8.2310    5.3603  -12.9022 H   0  0  0  0  0  0  0  0  0  0  0  0
   -9.3296    4.2109  -11.1689 H   0  0  0  0  0  0  0  0  0  0  0  0
  -10.8897    4.6593  -11.6745 H   0  0  0  0  0  0  0  0  0  0  0  0
  -10.5143    6.2100   -9.8444 H   0  0  0  0  0  0  0  0  0  0  0  0
   -9.5314    8.2991  -11.2166 H   0  0  0  0  0  0  0  0  0  0  0  0
  -11.0808    7.6835  -11.6399 H   0  0  0  0  0  0  0  0  0  0  0  0
   -9.6595    9.6359  -12.7903 H   0  0  0  0  0  0  0  0  0  0  0  0
  -10.1892   11.8857  -14.7343 H   0  0  0  0  0  0  0  0  0  0  0  0
  -11.1612   11.5274  -13.3272 H   0  0  0  0  0  0  0  0  0  0  0  0
  -11.9084   11.6240  -14.9037 H   0  0  0  0  0  0  0  0  0  0  0  0
   -9.8174   10.0913  -16.4987 H   0  0  0  0  0  0  0  0  0  0  0  0
  -11.5541    9.9251  -16.5955 H   0  0  0  0  0  0  0  0  0  0  0  0
  -10.5574    8.5212  -16.2979 H   0  0  0  0  0  0  0  0  0  0  0  0
  -12.0997    9.2148  -12.9895 H   0  0  0  0  0  0  0  0  0  0  0  0
  -11.8974    8.0069  -14.2357 H   0  0  0  0  0  0  0  0  0  0  0  0
  -12.8942    9.4108  -14.5333 H   0  0  0  0  0  0  0  0  0  0  0  0
   -8.5489    3.3118  -13.7617 H   0  0  0  0  0  0  0  0  0  0  0  0
   -8.1532   10.1083  -15.2888 H   0  0  0  0  0  0  0  0  0  0  0  0
   -7.8439    6.3491  -10.6679 H   0  0  0  0  0  0  0  0  0  0  0  0
  -15.5324    3.0422   -9.9292 H   0  0  0  0  0  0  0  0  0  0  0  0
  -14.3439    2.1254   -9.2782 H   0  0  0  0  0  0  0  0  0  0  0  0
  -14.1988    3.5685   -7.3114 H   0  0  0  0  0  0  0  0  0  0  0  0
  -15.8601    3.9226   -7.8062 H   0  0  0  0  0  0  0  0  0  0  0  0
  -13.4369    5.5250   -8.5484 H   0  0  0  0  0  0  0  0  0  0  0  0
  -14.6568    5.9694   -7.3598 H   0  0  0  0  0  0  0  0  0  0  0  0
  -16.3558    5.9872   -9.1145 H   0  0  0  0  0  0  0  0  0  0  0  0
  -15.1162    5.5795  -10.2967 H   0  0  0  0  0  0  0  0  0  0  0  0
  -13.9517    7.6659   -9.7917 H   0  0  0  0  0  0  0  0  0  0  0  0
  -15.2172    8.0764   -8.6394 H   0  0  0  0  0  0  0  0  0  0  0  0
  -16.8575    8.0912  -10.4254 H   0  0  0  0  0  0  0  0  0  0  0  0
  -15.5711    7.6754  -11.5781 H   0  0  0  0  0  0  0  0  0  0  0  0
  -14.4802    9.7778  -11.1360 H   0  0  0  0  0  0  0  0  0  0  0  0
  -15.7879   10.1940  -10.0076 H   0  0  0  0  0  0  0  0  0  0  0  0
  -17.3748   10.2256  -11.8063 H   0  0  0  0  0  0  0  0  0  0  0  0
  -16.1173    9.7590  -12.9448 H   0  0  0  0  0  0  0  0  0  0  0  0
  -14.9228   11.8271  -12.4935 H   0  0  0  0  0  0  0  0  0  0  0  0
  -16.1880   12.2879  -11.3441 H   0  0  0  0  0  0  0  0  0  0  0  0
  -17.3278   13.2235  -12.9429 H   0  0  0  0  0  0  0  0  0  0  0  0
  -17.3608   11.6364  -13.7899 H   0  0  0  0  0  0  0  0  0  0  0  0
  1  2  1  0
  1 26  1  0
  1 31  2  0
  2  3  2  0
  2  7  1  0
  3  4  1  0
  3 78  1  0
  4  5  2  0
  4 29  1  0
  5  6  1  0
  5 10  1  0
  6  7  2  0
  6 79  1  0
  7  8  1  0
  8 35  1  0
  8 80  1  0
  8 81  1  0
  9 35  1  0
  9 82  1  0
  9 83  1  0
  9 84  1  0
 10 11  2  0
 10 14  1  0
 11 27  1  0
 11 85  1  0
 12 13  1  0
 12 27  1  0
 12 34  2  0
 13 14  2  0
 13 28  1  0
 14 15  1  0
 15 16  2  0
 15 17  1  0
 16 28  1  0
 16 86  1  0
 17 29  1  0
 17 87  1  0
 17 88  1  0
 18 19  2  0
 18 29  1  0
 18 30  1  0
 19 20  1  0
 19 25  1  0
 20 21  2  0
 20 89  1  0
 21 22  1  0
 21 24  1  0
 22 30  2  0
 22 90  1  0
 23 27  1  0
 23 91  1  0
 23 92  1  0
 23 93  1  0
 26 77  1  0
 26 94  1  0
 28 95  1  0
 32 35  2  0
 33 35  2  0
 36 62  2  0
 36 67  1  0
 36 96  1  0
 37 41  2  0
 37 42  1  0
 37 97  1  0
 38 39  1  0
 38 42  2  0
 38 44  1  0
 39 40  2  0
 39 98  1  0
 40 41  1  0
 40 99  1  0
 41 43  1  0
 42100  1  0
 43 59  1  0
 43101  1  0
 43102  1  0
 44 49  2  0
 44 67  1  0
 45 49  1  0
 45103  1  0
 45104  1  0
 45105  1  0
 46 59  1  0
 46 63  2  0
 47 46  1  0
 47 48  1  0
 47 60  1  0
 47106  1  1
 48 50  1  0
 48107  1  0
 48108  1  0
 49 62  1  0
 50 51  1  0
 50 66  1  0
 50109  1  1
 51 60  1  0
 51110  1  0
 51111  1  0
 52 53  1  0
 52 60  1  0
 52 64  2  0
 53 54  1  0
 53 61  1  0
 53112  1  1
 54 55  1  0
 54 56  1  0
 54 57  1  0
 55113  1  0
 55114  1  0
 55115  1  0
 56116  1  0
 56117  1  0
 56118  1  0
 57119  1  0
 57120  1  0
 57121  1  0
 58 61  1  0
 58 65  2  0
 58 68  1  0
 59122  1  0
 61123  1  0
 66124  1  0
 68 69  1  0
 68125  1  0
 68126  1  0
 69 70  1  0
 69127  1  0
 69128  1  0
 70 71  1  0
 70129  1  0
 70130  1  0
 71 72  1  0
 71131  1  0
 71132  1  0
 72 73  1  0
 72133  1  0
 72134  1  0
 73 74  1  0
 73135  1  0
 73136  1  0
 74 75  1  0
 74137  1  0
 74138  1  0
 75 76  1  0
 75139  1  0
 75140  1  0
 76 77  1  0
 76141  1  0
 76142  1  0
 77143  1  0
 77144  1  0
M  ISO  4  26 100  58 101  68 101  77 100
M  END
$$$$
