0
     RDKit          3D

170177  0  0  0  0  0  0  0  0999 V2000
   -7.5480    7.1130   16.2540 N   0  0  0  0  0  0  0  0  0100  0  0
   -7.9320    7.6000   17.4710 C   0  0  0  0  0  0  0  0  0101  0  0
   -9.2810    7.0610   17.9380 C   0  0  0  0  0  0  0  0  0102  0  0
   -9.2970    5.6950   17.8800 N   0  0  0  0  0  0  0  0  0103  0  0
   -9.0540    5.2460   16.6260 C   0  0  0  0  0  0  0  0  0104  0  0
   -7.6970    5.7550   16.1340 C   0  0  0  0  0  0  0  0  0105  0  0
  -10.3420    5.1820   18.4210 C   0  0  0  0  0  0  0  0  0106  0  0
  -11.7010    5.6410   17.7310 C   0  0  0  0  0  0  0  0  0107  0  0
  -12.4190    6.7380   18.2170 C   0  0  0  0  0  0  0  0  0108  0  0
  -13.6280    7.1360   17.5950 C   0  0  0  0  0  0  0  0  0109  0  0
  -14.1220    6.4240   16.4710 C   0  0  0  0  0  0  0  0  0110  0  0
  -13.4020    5.3180   15.9780 C   0  0  0  0  0  0  0  0  0111  0  0
  -12.2020    4.9210   16.5950 C   0  0  0  0  0  0  0  0  0112  0  0
  -14.3700    8.3520   18.1750 C   0  0  0  0  0  0  0  0  0113  0  0
  -14.1480    8.6360   19.5110 C   0  0  0  0  0  0  0  0  0114  0  0
  -14.7680    9.7300   20.0810 C   0  0  0  0  0  0  0  0  0115  0  0
  -15.6560   10.5240   19.3220 C   0  0  0  0  0  0  0  0  0116  0  0
  -15.8590   10.2560   17.9730 C   0  0  0  0  0  0  0  0  0117  0  0
  -15.2150    9.1510   17.3920 C   0  0  0  0  0  0  0  0  0118  0  0
  -16.2700   11.6870   19.9850 N   0  0  0  0  0  0  0  0  0119  0  0
  -17.3840   12.3470   19.2950 C   0  0  0  0  0  0  0  0  0120  0  0
  -17.9990   13.4730   20.1040 C   0  0  0  0  0  0  0  0  0121  0  0
  -17.0420   14.4090   20.4920 N   0  0  0  0  0  0  0  0  0122  0  0
  -16.0370   13.8540   21.2070 C   0  0  0  0  0  0  0  0  0123  0  0
  -15.3460   12.7260   20.4240 C   0  0  0  0  0  0  0  0  0124  0  0
  -17.6050   15.3100   21.2320 C   0  0  0  0  0  0  0  0  0125  0  0
  -14.4850    9.9160   21.4890 N   0  0  0  0  0  0  0  0  0126  0  0
  -13.1740   10.2910   21.9940 C   0  0  0  0  0  0  0  0  0127  0  0
  -13.1060   10.3230   23.5580 C   0  0  0  0  0  0  0  0  0128  0  0
  -13.7380    9.2210   24.1920 C   0  0  0  0  0  0  0  0  0129  0  0
  -13.7530    9.0950   25.5220 N   0  0  0  0  0  0  0  0  0130  0  0
  -13.1730   10.0080   26.2880 C   0  0  0  0  0  0  0  0  0131  0  0
  -12.5310   11.1340   25.7370 C   0  0  0  0  0  0  0  0  0132  0  0
  -12.4840   11.2960   24.3100 C   0  0  0  0  0  0  0  0  0133  0  0
  -11.7930   12.5000   23.6570 C   0  0  0  0  0  0  0  0  0134  0  0
  -12.2300   10.4540   21.3050 O   0  0  0  0  0  0  0  0  0135  0  0
  -13.2190    9.8330   27.6660 O   0  0  0  0  0  0  0  0  0136  0  0
  -11.4210   13.3930   24.6230 F   0  0  0  0  0  0  0  0  0137  0  0
  -10.6840   12.0730   22.9780 F   0  0  0  0  0  0  0  0  0138  0  0
  -12.6490   13.0990   22.7930 F   0  0  0  0  0  0  0  0  0139  0  0
   -5.9980  -11.4280   14.8430 C   0  0  0  0  0  0  0  0  0100  0  0
   -6.3720  -12.4560   15.7040 C   0  0  0  0  0  0  0  0  0101  0  0
   -4.2210  -13.0940   15.4180 C   0  0  0  0  0  0  0  0  0102  0  0
   -6.8450  -10.2530   14.3320 C   0  0  0  0  0  0  0  0  0103  0  0
   -6.7220   -9.8000   13.0400 C   0  0  0  0  0  0  0  0  0104  0  0
   -8.5080   -8.5780   14.8240 C   0  0  0  0  0  0  0  0  0105  0  0
   -7.5170   -8.7190   12.6300 C   0  0  0  0  0  0  0  0  0106  0  0
   -8.4050   -8.1170   13.5170 C   0  0  0  0  0  0  0  0  0107  0  0
   -9.2790   -6.9200   13.0360 C   0  0  0  0  0  0  0  0  0108  0  0
   -7.8450   -5.5850   11.5230 C   0  0  0  0  0  0  0  0  0109  0  0
   -7.2920   -5.2910   10.1050 C   0  0  1  0  0  0  0  0  0110  0  0
   -7.7330   -9.6330   15.2320 C   0  0  0  0  0  0  0  0  0111  0  0
   -4.3640  -11.7070   14.4840 S   0  0  0  0  0  0  0  0  0112  0  0
   -5.3910  -13.3510   15.9870 N   0  0  0  0  0  0  0  0  0113  0  0
   -8.7790   -6.6330   11.7180 N   0  0  0  0  0  0  0  0  0114  0  0
   -7.4700   -4.9320   12.4590 O   0  0  0  0  0  0  0  0  0115  0  0
   -7.1050   -3.7080    9.8450 N   0  0  0  0  0  0  0  0  0116  0  0
   -5.8940   -3.4740    9.4180 C   0  0  0  0  0  0  0  0  0117  0  0
   -5.3630   -4.8780    9.0600 C   0  0  1  0  0  0  0  0  0118  0  0
   -6.1200   -5.8020   10.0140 C   0  0  0  0  0  0  0  0  0119  0  0
   -8.2000   -2.7360   10.0650 C   0  0  0  0  0  0  0  0  0120  0  0
   -5.6980   -5.1680    7.7670 O   0  0  0  0  0  0  0  0  0121  0  0
   -9.2290   -3.1480   10.4520 O   0  0  0  0  0  0  0  0  0122  0  0
   -7.9740   -1.2440    9.8020 C   0  0  2  0  0  0  0  0  0123  0  0
   -7.7580   -0.5160   11.1850 C   0  0  0  0  0  0  0  0  0124  0  0
   -9.1560   -0.7160    9.2150 N   0  0  0  0  0  0  0  0  0125  0  0
   -9.0530   -0.5570   12.0000 C   0  0  0  0  0  0  0  0  0126  0  0
   -6.6400   -1.2300   11.9620 C   0  0  0  0  0  0  0  0  0127  0  0
   -7.3650    0.9290   10.9380 C   0  0  0  0  0  0  0  0  0128  0  0
   -7.7780  -12.6040   16.2740 C   0  0  0  0  0  0  0  0  0129  0  0
   -4.5743    6.4631   12.2966 C   0  0  0  0  0  0  0  0  0  0  0  0
   -5.4706   -1.5664    5.6347 C   0  0  0  0  0  0  0  0  0  0  0  0
   -3.1813    6.5920   11.7127 C   0  0  0  0  0  0  0  0  0  0  0  0
   -4.0552   -1.2024    5.2219 C   0  0  0  0  0  0  0  0  0  0  0  0
   -3.1096    6.1301   10.2581 C   0  0  0  0  0  0  0  0  0  0  0  0
   -3.7698    0.2912    5.3689 C   0  0  0  0  0  0  0  0  0  0  0  0
   -3.5260    4.6662   10.0881 C   0  0  0  0  0  0  0  0  0  0  0  0
   -3.9071    0.7410    6.8244 C   0  0  0  0  0  0  0  0  0  0  0  0
   -3.4175    4.2251    8.6261 C   0  0  0  0  0  0  0  0  0  0  0  0
   -3.6226    2.2317    7.0327 C   0  0  0  0  0  0  0  0  0  0  0  0
   -3.7983    2.7524    8.4624 C   0  0  0  0  0  0  0  0  0  0  0  0
   -6.0497    6.3493   15.2487 C   0  0  0  0  0  0  0  0  0  0  0  0
   -5.8425    5.3503   14.1197 C   0  0  0  0  0  0  0  0  0  0  0  0
   -4.6223    5.6238   13.3967 N   0  0  0  0  0  0  0  0  0  0  0  0
   -5.5328    7.0614   11.8129 O   0  0  0  0  0  0  0  0  0  0  0  0
   -6.4213   -0.7964    5.5281 O   0  0  0  0  0  0  0  0  0  0  0  0
   -7.9964    8.6660   17.4053 H   0  0  0  0  0  0  0  0  0  0  0  0
   -7.2000    7.2837   18.1844 H   0  0  0  0  0  0  0  0  0  0  0  0
  -10.0529    7.4493   17.3069 H   0  0  0  0  0  0  0  0  0  0  0  0
   -9.4439    7.3663   18.9505 H   0  0  0  0  0  0  0  0  0  0  0  0
   -9.8223    5.5982   15.9698 H   0  0  0  0  0  0  0  0  0  0  0  0
   -9.0423    4.1761   16.6352 H   0  0  0  0  0  0  0  0  0  0  0  0
   -6.9284    5.2778   16.7053 H   0  0  0  0  0  0  0  0  0  0  0  0
   -7.6311    5.5211   15.0920 H   0  0  0  0  0  0  0  0  0  0  0  0
  -10.3689    5.4734   19.4502 H   0  0  0  0  0  0  0  0  0  0  0  0
  -10.2704    4.1210   18.3028 H   0  0  0  0  0  0  0  0  0  0  0  0
  -12.0661    7.2609   19.0337 H   0  0  0  0  0  0  0  0  0  0  0  0
  -15.0026    6.7145   16.0180 H   0  0  0  0  0  0  0  0  0  0  0  0
  -13.7565    4.7969   15.1608 H   0  0  0  0  0  0  0  0  0  0  0  0
  -11.6800    4.1092   16.2296 H   0  0  0  0  0  0  0  0  0  0  0  0
  -13.5257    8.0365   20.0752 H   0  0  0  0  0  0  0  0  0  0  0  0
  -16.4743   10.8605   17.4063 H   0  0  0  0  0  0  0  0  0  0  0  0
  -15.3630    8.9288   16.3951 H   0  0  0  0  0  0  0  0  0  0  0  0
  -18.1412   11.6179   19.0951 H   0  0  0  0  0  0  0  0  0  0  0  0
  -16.9943   12.7754   18.3953 H   0  0  0  0  0  0  0  0  0  0  0  0
  -18.4570   13.0616   20.9792 H   0  0  0  0  0  0  0  0  0  0  0  0
  -18.7223   13.9688   19.4909 H   0  0  0  0  0  0  0  0  0  0  0  0
  -16.4363   13.4530   22.1151 H   0  0  0  0  0  0  0  0  0  0  0  0
  -15.3118   14.6133   21.4129 H   0  0  0  0  0  0  0  0  0  0  0  0
  -14.8743   13.1491   19.5618 H   0  0  0  0  0  0  0  0  0  0  0  0
  -14.6383   12.2670   21.0823 H   0  0  0  0  0  0  0  0  0  0  0  0
  -18.4063   15.7670   20.6899 H   0  0  0  0  0  0  0  0  0  0  0  0
  -16.8841   16.0546   21.4980 H   0  0  0  0  0  0  0  0  0  0  0  0
  -17.9899   14.8530   22.1197 H   0  0  0  0  0  0  0  0  0  0  0  0
  -15.2154    9.7821   22.1354 H   0  0  0  0  0  0  0  0  0  0  0  0
  -14.1963    8.5008   23.6122 H   0  0  0  0  0  0  0  0  0  0  0  0
  -14.1973    8.3198   25.9353 H   0  0  0  0  0  0  0  0  0  0  0  0
  -12.0971   11.8382   26.3542 H   0  0  0  0  0  0  0  0  0  0  0  0
   -3.3625  -13.6554   15.5311 H   0  0  0  0  0  0  0  0  0  0  0  0
   -6.0594  -10.2452   12.3859 H   0  0  0  0  0  0  0  0  0  0  0  0
   -9.1633   -8.1293   15.4830 H   0  0  0  0  0  0  0  0  0  0  0  0
   -7.4428   -8.3672   11.6626 H   0  0  0  0  0  0  0  0  0  0  0  0
   -9.1564   -6.0757   13.6817 H   0  0  0  0  0  0  0  0  0  0  0  0
  -10.3250   -7.1454   13.0401 H   0  0  0  0  0  0  0  0  0  0  0  0
   -7.9875   -5.6957    9.3998 H   0  0  0  0  0  0  0  0  0  0  0  0
   -7.8008   -9.9744   16.2035 H   0  0  0  0  0  0  0  0  0  0  0  0
   -9.0864   -7.1660   10.9494 H   0  0  0  0  0  0  0  0  0  0  0  0
   -5.2983   -3.0233   10.1842 H   0  0  0  0  0  0  0  0  0  0  0  0
   -5.8665   -2.7941    8.5922 H   0  0  0  0  0  0  0  0  0  0  0  0
   -4.3006   -4.9693    9.1481 H   0  0  0  0  0  0  0  0  0  0  0  0
   -6.1713   -6.7940    9.6162 H   0  0  0  0  0  0  0  0  0  0  0  0
   -5.6389   -5.8803   10.9665 H   0  0  0  0  0  0  0  0  0  0  0  0
   -6.6589   -5.0930    7.6573 H   0  0  0  0  0  0  0  0  0  0  0  0
   -7.1273   -1.1021    9.1633 H   0  0  0  0  0  0  0  0  0  0  0  0
  -10.0731   -0.3974    9.3785 H   0  0  0  0  0  0  0  0  0  0  0  0
   -9.3320   -1.5750   12.1753 H   0  0  0  0  0  0  0  0  0  0  0  0
   -9.8315   -0.0622   11.4578 H   0  0  0  0  0  0  0  0  0  0  0  0
   -8.9008   -0.0625   12.9366 H   0  0  0  0  0  0  0  0  0  0  0  0
   -6.9198   -2.2482   12.1346 H   0  0  0  0  0  0  0  0  0  0  0  0
   -6.4873   -0.7382   12.8999 H   0  0  0  0  0  0  0  0  0  0  0  0
   -5.7348   -1.2005   11.3923 H   0  0  0  0  0  0  0  0  0  0  0  0
   -8.1448    1.4233   10.3972 H   0  0  0  0  0  0  0  0  0  0  0  0
   -6.4603    0.9600   10.3675 H   0  0  0  0  0  0  0  0  0  0  0  0
   -7.2128    1.4224   11.8752 H   0  0  0  0  0  0  0  0  0  0  0  0
   -8.3899  -11.7973   15.9280 H   0  0  0  0  0  0  0  0  0  0  0  0
   -7.7334  -12.5848   17.3429 H   0  0  0  0  0  0  0  0  0  0  0  0
   -8.1977  -13.5338   15.9512 H   0  0  0  0  0  0  0  0  0  0  0  0
   -2.5091    5.9969   12.2949 H   0  0  0  0  0  0  0  0  0  0  0  0
   -2.9137    7.6277   11.7377 H   0  0  0  0  0  0  0  0  0  0  0  0
   -3.9141   -1.4798    4.1982 H   0  0  0  0  0  0  0  0  0  0  0  0
   -3.3826   -1.7274    5.8675 H   0  0  0  0  0  0  0  0  0  0  0  0
   -2.1039    6.2436    9.9109 H   0  0  0  0  0  0  0  0  0  0  0  0
   -3.7906    6.7304    9.6917 H   0  0  0  0  0  0  0  0  0  0  0  0
   -4.4640    0.8399    4.7673 H   0  0  0  0  0  0  0  0  0  0  0  0
   -2.7652    0.4767    5.0507 H   0  0  0  0  0  0  0  0  0  0  0  0
   -4.5391    4.5517   10.4128 H   0  0  0  0  0  0  0  0  0  0  0  0
   -2.8703    4.0574   10.6749 H   0  0  0  0  0  0  0  0  0  0  0  0
   -3.2182    0.1784    7.4192 H   0  0  0  0  0  0  0  0  0  0  0  0
   -4.9238    0.5715    7.1116 H   0  0  0  0  0  0  0  0  0  0  0  0
   -2.4100    4.3641    8.2935 H   0  0  0  0  0  0  0  0  0  0  0  0
   -4.0924    4.8162    8.0430 H   0  0  0  0  0  0  0  0  0  0  0  0
   -4.2849    2.7836    6.3990 H   0  0  0  0  0  0  0  0  0  0  0  0
   -2.5863    2.3640    6.8014 H   0  0  0  0  0  0  0  0  0  0  0  0
   -4.8244    2.6347    8.7421 H   0  0  0  0  0  0  0  0  0  0  0  0
   -3.1400    2.1856    9.0871 H   0  0  0  0  0  0  0  0  0  0  0  0
   -5.5725    7.2251   14.8612 H   0  0  0  0  0  0  0  0  0  0  0  0
   -5.8141    5.6370   16.0116 H   0  0  0  0  0  0  0  0  0  0  0  0
   -6.6697    5.4112   13.4437 H   0  0  0  0  0  0  0  0  0  0  0  0
   -5.7725    4.3703   14.5434 H   0  0  0  0  0  0  0  0  0  0  0  0
   -3.7892    5.1951   13.6991 H   0  0  0  0  0  0  0  0  0  0  0  0
  1  2  1  0
  1  6  1  0
  1 82  1  0
  2  3  1  0
  2 87  1  0
  2 88  1  0
  3  4  1  0
  3 89  1  0
  3 90  1  0
  4  5  1  0
  4  7  1  0
  5  6  1  0
  5 91  1  0
  5 92  1  0
  6 93  1  0
  6 94  1  0
  7  8  1  0
  7 95  1  0
  7 96  1  0
  8  9  2  0
  8 13  1  0
  9 10  1  0
  9 97  1  0
 10 11  2  0
 10 14  1  0
 11 12  1  0
 11 98  1  0
 12 13  2  0
 12 99  1  0
 13100  1  0
 14 15  2  0
 14 19  1  0
 15 16  1  0
 15101  1  0
 16 17  2  0
 16 27  1  0
 17 18  1  0
 17 20  1  0
 18 19  2  0
 18102  1  0
 19103  1  0
 20 21  1  0
 20 25  1  0
 21 22  1  0
 21104  1  0
 21105  1  0
 22 23  1  0
 22106  1  0
 22107  1  0
 23 24  1  0
 23 26  1  0
 24 25  1  0
 24108  1  0
 24109  1  0
 25110  1  0
 25111  1  0
 26112  1  0
 26113  1  0
 26114  1  0
 27 28  1  0
 27115  1  0
 28 29  1  0
 28 36  2  0
 29 30  2  0
 29 34  1  0
 30 31  1  0
 30116  1  0
 31 32  1  0
 31117  1  0
 32 33  1  0
 32 37  2  0
 33 34  2  0
 33118  1  0
 34 35  1  0
 35 38  1  0
 35 39  1  0
 35 40  1  0
 41 42  2  0
 41 44  1  0
 41 53  1  0
 42 54  1  0
 42 70  1  0
 43 53  1  0
 43 54  2  0
 43119  1  0
 44 45  2  0
 44 52  1  0
 45 47  1  0
 45120  1  0
 46 48  1  0
 46 52  2  0
 46121  1  0
 47 48  2  0
 47122  1  0
 48 49  1  0
 49 55  1  0
 49123  1  0
 49124  1  0
 50 55  1  0
 50 56  2  0
 51 50  1  0
 51 57  1  0
 51 60  1  0
 51125  1  6
 52126  1  0
 55127  1  0
 57 58  1  0
 57 61  1  0
 58 59  1  0
 58128  1  0
 58129  1  0
 59 60  1  0
 59 62  1  0
 59130  1  6
 60131  1  0
 60132  1  0
 61 63  2  0
 61 64  1  0
 62133  1  0
 64 65  1  0
 64 66  1  0
 64134  1  6
 65 67  1  0
 65 68  1  0
 65 69  1  0
 66 72  1  0
 66135  1  0
 67136  1  0
 67137  1  0
 67138  1  0
 68139  1  0
 68140  1  0
 68141  1  0
 69142  1  0
 69143  1  0
 69144  1  0
 70145  1  0
 70146  1  0
 70147  1  0
 71 73  1  0
 71 84  1  0
 71 85  2  0
 72 74  1  0
 72 86  2  0
 73 75  1  0
 73148  1  0
 73149  1  0
 74 76  1  0
 74150  1  0
 74151  1  0
 75 77  1  0
 75152  1  0
 75153  1  0
 76 78  1  0
 76154  1  0
 76155  1  0
 77 79  1  0
 77156  1  0
 77157  1  0
 78 80  1  0
 78158  1  0
 78159  1  0
 79 81  1  0
 79160  1  0
 79161  1  0
 80 81  1  0
 80162  1  0
 80163  1  0
 81164  1  0
 81165  1  0
 82 83  1  0
 82166  1  0
 82167  1  0
 83 84  1  0
 83168  1  0
 83169  1  0
 84170  1  0
M  ISO  4   1 100  66 101  72 101  82 100
M  END
$$$$
