0
     RDKit          3D

125131  0  0  0  0  0  0  0  0999 V2000
  -33.0443   17.9336  -27.3733 N   0  0  0  0  0  0  0  0  0100  0  0
  -34.1004   16.9976  -26.9653 C   0  0  0  0  0  0  0  0  0101  0  0
  -34.5757   16.1738  -28.1817 C   0  0  0  0  0  0  0  0  0102  0  0
  -35.1489   17.0480  -29.2133 N   0  0  0  0  0  0  0  0  0103  0  0
  -34.0929   17.9845  -29.6251 C   0  0  0  0  0  0  0  0  0104  0  0
  -33.5748   18.8128  -28.4249 C   0  0  0  0  0  0  0  0  0105  0  0
  -36.0061   16.5195  -30.1696 C   0  0  0  0  0  0  0  0  0106  0  0
  -37.3542   16.8965  -30.1634 C   0  0  0  0  0  0  0  0  0107  0  0
  -38.2303   16.3835  -31.1363 C   0  0  0  0  0  0  0  0  0108  0  0
  -37.7526   15.5184  -32.0740 N   0  0  0  0  0  0  0  0  0109  0  0
  -36.4737   15.1266  -32.0855 N   0  0  0  0  0  0  0  0  0110  0  0
  -35.6090   15.6014  -31.1596 C   0  0  0  0  0  0  0  0  0111  0  0
  -34.3134   15.0972  -31.2398 N   0  0  0  0  0  0  0  0  0112  0  0
  -39.7004   16.7404  -31.2115 C   0  0  0  0  0  0  0  0  0113  0  0
  -40.6520   16.0406  -32.0011 C   0  0  0  0  0  0  0  0  0114  0  0
  -41.9912   16.4304  -32.0349 C   0  0  0  0  0  0  0  0  0115  0  0
  -42.4278   17.5112  -31.2810 C   0  0  0  0  0  0  0  0  0116  0  0
  -41.5228   18.2167  -30.5017 C   0  0  0  0  0  0  0  0  0117  0  0
  -40.1839   17.8361  -30.4705 C   0  0  0  0  0  0  0  0  0118  0  0
  -40.3319   14.9480  -32.7660 O   0  0  0  0  0  0  0  0  0119  0  0
  -30.0063   13.2508  -32.9100 N   0  0  0  0  0  0  0  0  0100  0  0
  -29.3660   12.7747  -30.6175 C   0  0  0  0  0  0  0  0  0101  0  0
  -28.8186   15.7821  -30.1982 C   0  0  0  0  0  0  0  0  0102  0  0
  -31.0897   15.4339  -31.1677 C   0  0  0  0  0  0  0  0  0103  0  0
  -29.1962   16.1588  -32.6378 C   0  0  0  0  0  0  0  0  0104  0  0
  -28.3333   11.5111  -28.6861 C   0  0  1  0  0  0  0  0  0105  0  0
  -26.9047   12.8718  -30.0559 C   0  0  0  0  0  0  0  0  0106  0  0
  -29.3781   11.9090  -27.6257 C   0  0  0  0  0  0  0  0  0107  0  0
  -30.5204   11.5593  -23.2124 C   0  0  0  0  0  0  0  0  0108  0  0
  -29.8480   11.4348  -21.9847 C   0  0  0  0  0  0  0  0  0109  0  0
  -28.6063   10.7980  -21.9085 C   0  0  0  0  0  0  0  0  0110  0  0
  -28.6775   10.3990  -24.2866 C   0  0  0  0  0  0  0  0  0111  0  0
  -28.3899   10.1228  -19.3779 C   0  0  0  0  0  0  0  0  0112  0  0
  -26.2899   10.3405  -18.8452 C   0  0  0  0  0  0  0  0  0113  0  0
  -29.1979   13.7679  -31.7965 C   0  0  2  0  0  0  0  0  0114  0  0
  -29.5767   15.2563  -31.4397 C   0  0  0  0  0  0  0  0  0115  0  0
  -28.2934   12.4297  -29.8495 N   0  0  0  0  0  0  0  0  0116  0  0
  -30.4956   12.3147  -30.4224 O   0  0  0  0  0  0  0  0  0117  0  0
  -26.9265   11.5067  -28.0814 C   0  0  0  0  0  0  0  0  0118  0  0
  -26.0417   11.9047  -29.2474 C   0  0  1  0  0  0  0  0  0119  0  0
  -25.6423   10.7874  -30.0090 O   0  0  0  0  0  0  0  0  0120  0  0
  -29.6865   13.0918  -27.4714 O   0  0  0  0  0  0  0  0  0121  0  0
  -29.8458   10.9022  -26.8802 N   0  0  0  0  0  0  0  0  0122  0  0
  -30.6846   11.0789  -25.6964 C   0  0  0  0  0  0  0  0  0123  0  0
  -29.9357   11.0110  -24.3655 C   0  0  0  0  0  0  0  0  0124  0  0
  -28.0166   10.3025  -23.0709 C   0  0  0  0  0  0  0  0  0125  0  0
  -27.9177   10.5927  -20.6094 C   0  0  0  0  0  0  0  0  0126  0  0
  -27.4792    9.9996  -18.4308 N   0  0  0  0  0  0  0  0  0127  0  0
  -26.2096   10.9115  -20.4692 S   0  0  0  0  0  0  0  0  0128  0  0
  -29.7937    9.7072  -18.9940 C   0  0  0  0  0  0  0  0  0129  0  0
  -29.5560   12.6626  -34.0290 C   0  0  0  0  0  0  0  0  0130  0  0
  -30.6353   12.1673  -35.0094 C   0  0  0  0  0  0  0  0  0131  0  0
  -28.3596   12.5135  -34.2771 O   0  0  0  0  0  0  0  0  0132  0  0
  -31.8815   12.1442  -34.5340 F   0  0  0  0  0  0  0  0  0133  0  0
  -30.4582   12.5414  -36.4637 C   0  0  0  0  0  0  0  0  0134  0  0
  -30.2582   11.1058  -36.0230 C   0  0  0  0  0  0  0  0  0135  0  0
  -31.7543   12.1706  -23.3610 O   0  0  0  0  0  0  0  0  0136  0  0
  -32.9365   18.3860  -25.3287 C   0  0  0  0  0  0  0  0  0  0  0  0
  -33.5628   18.1861  -26.6946 C   0  0  0  0  0  0  0  0  0  0  0  0
  -33.4868   12.0412  -27.6940 C   0  0  0  0  0  0  0  0  0  0  0  0
  -34.6664   12.9725  -27.8963 C   0  0  0  0  0  0  0  0  0  0  0  0
  -34.7181   16.6486  -28.0453 C   0  0  0  0  0  0  0  0  0  0  0  0
  -35.2696   15.2363  -28.0807 C   0  0  0  0  0  0  0  0  0  0  0  0
  -34.1178   16.8808  -26.7768 O   0  0  0  0  0  0  0  0  0  0  0  0
  -34.2024   14.3171  -27.8942 O   0  0  0  0  0  0  0  0  0  0  0  0
  -34.9264   17.5479  -26.5656 H   0  0  0  0  0  0  0  0  0  0  0  0
  -33.7125   16.3334  -26.2215 H   0  0  0  0  0  0  0  0  0  0  0  0
  -35.3195   15.4741  -27.8622 H   0  0  0  0  0  0  0  0  0  0  0  0
  -33.7342   15.6599  -28.5972 H   0  0  0  0  0  0  0  0  0  0  0  0
  -34.4868   18.6507  -30.3639 H   0  0  0  0  0  0  0  0  0  0  0  0
  -33.2761   17.4185  -30.0218 H   0  0  0  0  0  0  0  0  0  0  0  0
  -32.7975   19.4673  -28.7600 H   0  0  0  0  0  0  0  0  0  0  0  0
  -34.3891   19.3773  -28.0211 H   0  0  0  0  0  0  0  0  0  0  0  0
  -37.7046   17.5501  -29.4457 H   0  0  0  0  0  0  0  0  0  0  0  0
  -33.6283   15.3963  -30.5992 H   0  0  0  0  0  0  0  0  0  0  0  0
  -34.0826   14.4416  -31.9371 H   0  0  0  0  0  0  0  0  0  0  0  0
  -42.6614   15.9120  -32.6240 H   0  0  0  0  0  0  0  0  0  0  0  0
  -43.4216   17.7886  -31.3003 H   0  0  0  0  0  0  0  0  0  0  0  0
  -41.8422   19.0245  -29.9445 H   0  0  0  0  0  0  0  0  0  0  0  0
  -39.5250   18.3739  -29.8860 H   0  0  0  0  0  0  0  0  0  0  0  0
  -39.4494   14.6338  -32.7880 H   0  0  0  0  0  0  0  0  0  0  0  0
  -30.9825   13.3462  -32.8258 H   0  0  0  0  0  0  0  0  0  0  0  0
  -29.1125   16.7921  -30.0021 H   0  0  0  0  0  0  0  0  0  0  0  0
  -27.7651   15.7465  -30.3820 H   0  0  0  0  0  0  0  0  0  0  0  0
  -29.0538   15.1715  -29.3516 H   0  0  0  0  0  0  0  0  0  0  0  0
  -31.2918   16.4577  -30.9314 H   0  0  0  0  0  0  0  0  0  0  0  0
  -31.3794   14.8141  -30.3450 H   0  0  0  0  0  0  0  0  0  0  0  0
  -31.6441   15.1527  -32.0386 H   0  0  0  0  0  0  0  0  0  0  0  0
  -29.4467   17.1745  -32.4129 H   0  0  0  0  0  0  0  0  0  0  0  0
  -29.7340   15.8429  -33.5072 H   0  0  0  0  0  0  0  0  0  0  0  0
  -28.1448   16.0830  -32.8217 H   0  0  0  0  0  0  0  0  0  0  0  0
  -28.6308   10.5384  -29.0180 H   0  0  0  0  0  0  0  0  0  0  0  0
  -26.7750   13.8733  -29.7022 H   0  0  0  0  0  0  0  0  0  0  0  0
  -26.6380   12.8691  -31.0921 H   0  0  0  0  0  0  0  0  0  0  0  0
  -30.2768   11.8187  -21.1281 H   0  0  0  0  0  0  0  0  0  0  0  0
  -28.2393   10.0172  -25.1394 H   0  0  0  0  0  0  0  0  0  0  0  0
  -25.4551   10.2729  -18.2422 H   0  0  0  0  0  0  0  0  0  0  0  0
  -28.1625   13.8235  -32.0605 H   0  0  0  0  0  0  0  0  0  0  0  0
  -26.6683   10.5334  -27.7195 H   0  0  0  0  0  0  0  0  0  0  0  0
  -26.8307   12.1625  -27.2413 H   0  0  0  0  0  0  0  0  0  0  0  0
  -25.1237   12.3523  -28.9283 H   0  0  0  0  0  0  0  0  0  0  0  0
  -26.4277   10.3229  -30.3380 H   0  0  0  0  0  0  0  0  0  0  0  0
  -29.6102    9.9839  -27.1455 H   0  0  0  0  0  0  0  0  0  0  0  0
  -31.4299   10.3112  -25.6987 H   0  0  0  0  0  0  0  0  0  0  0  0
  -31.0948   12.0650  -25.7618 H   0  0  0  0  0  0  0  0  0  0  0  0
  -27.0844    9.8621  -23.0265 H   0  0  0  0  0  0  0  0  0  0  0  0
  -30.4479    9.8465  -19.8292 H   0  0  0  0  0  0  0  0  0  0  0  0
  -30.1308   10.3052  -18.1732 H   0  0  0  0  0  0  0  0  0  0  0  0
  -29.7948    8.6761  -18.7082 H   0  0  0  0  0  0  0  0  0  0  0  0
  -29.6174   13.1301  -36.7659 H   0  0  0  0  0  0  0  0  0  0  0  0
  -31.0643   13.0295  -37.1981 H   0  0  0  0  0  0  0  0  0  0  0  0
  -30.9686   10.3561  -36.3025 H   0  0  0  0  0  0  0  0  0  0  0  0
  -29.4683   10.3895  -36.1113 H   0  0  0  0  0  0  0  0  0  0  0  0
  -32.9450   17.6576  -24.5450 H   0  0  0  0  0  0  0  0  0  0  0  0
  -32.6223   19.0699  -24.5681 H   0  0  0  0  0  0  0  0  0  0  0  0
  -32.8144   18.3033  -27.4503 H   0  0  0  0  0  0  0  0  0  0  0  0
  -34.3358   18.9113  -26.8412 H   0  0  0  0  0  0  0  0  0  0  0  0
  -32.7126   12.3203  -28.3778 H   0  0  0  0  0  0  0  0  0  0  0  0
  -33.8366   11.0447  -27.8659 H   0  0  0  0  0  0  0  0  0  0  0  0
  -35.3715   12.8354  -27.1033 H   0  0  0  0  0  0  0  0  0  0  0  0
  -35.1410   12.7560  -28.8305 H   0  0  0  0  0  0  0  0  0  0  0  0
  -35.5132   17.3479  -28.1991 H   0  0  0  0  0  0  0  0  0  0  0  0
  -33.9880   16.7706  -28.8180 H   0  0  0  0  0  0  0  0  0  0  0  0
  -35.7359   15.0571  -29.0269 H   0  0  0  0  0  0  0  0  0  0  0  0
  -35.9935   15.1118  -27.3027 H   0  0  0  0  0  0  0  0  0  0  0  0
  1  2  1  0
  1  6  1  0
  1 58  1  0
  2  3  1  0
  2 66  1  0
  2 67  1  0
  3  4  1  0
  3 68  1  0
  3 69  1  0
  4  5  1  0
  4  7  1  0
  5  6  1  0
  5 70  1  0
  5 71  1  0
  6 72  1  0
  6 73  1  0
  7  8  2  0
  7 12  1  0
  8  9  1  0
  8 74  1  0
  9 10  2  0
  9 14  1  0
 10 11  1  0
 11 12  2  0
 12 13  1  0
 13 75  1  0
 13 76  1  0
 14 15  2  0
 14 19  1  0
 15 16  1  0
 15 20  1  0
 16 17  2  0
 16 77  1  0
 17 18  1  0
 17 78  1  0
 18 19  2  0
 18 79  1  0
 19 80  1  0
 20 81  1  0
 21 51  1  0
 21 82  1  0
 22 35  1  0
 22 37  1  0
 22 38  2  0
 23 36  1  0
 23 83  1  0
 23 84  1  0
 23 85  1  0
 24 36  1  0
 24 86  1  0
 24 87  1  0
 24 88  1  0
 25 36  1  0
 25 89  1  0
 25 90  1  0
 25 91  1  0
 26 28  1  0
 26 37  1  0
 26 39  1  0
 26 92  1  6
 27 37  1  0
 27 40  1  0
 27 93  1  0
 27 94  1  0
 28 42  2  0
 28 43  1  0
 29 30  2  0
 29 45  1  0
 29 57  1  0
 30 31  1  0
 30 95  1  0
 31 46  2  0
 31 47  1  0
 32 45  2  0
 32 46  1  0
 32 96  1  0
 33 47  2  0
 33 48  1  0
 33 50  1  0
 34 48  2  0
 34 49  1  0
 34 97  1  0
 35 21  1  0
 35 36  1  0
 35 98  1  6
 39 40  1  0
 39 99  1  0
 39100  1  0
 40 41  1  0
 40101  1  1
 41102  1  0
 43 44  1  0
 43103  1  0
 44 45  1  0
 44104  1  0
 44105  1  0
 46106  1  0
 47 49  1  0
 50107  1  0
 50108  1  0
 50109  1  0
 51 52  1  0
 51 53  2  0
 52 54  1  0
 52 55  1  0
 52 56  1  0
 55 56  1  0
 55110  1  0
 55111  1  0
 56112  1  0
 56113  1  0
 57 60  1  0
 58 59  1  0
 58114  1  0
 58115  1  0
 59 64  1  0
 59116  1  0
 59117  1  0
 60 61  1  0
 60118  1  0
 60119  1  0
 61 65  1  0
 61120  1  0
 61121  1  0
 62 63  1  0
 62 64  1  0
 62122  1  0
 62123  1  0
 63 65  1  0
 63124  1  0
 63125  1  0
M  ISO  4   1 100  57 101  58 100  60 101
M  END
$$$$
